<?xml version="1.0" encoding="UTF-8"?>

<!-- generated on 2022-05-23 18:01:50 by Eclipse SUMO netconvert Version 1.12.0
<configuration xmlns:xsi="http://www.w3.org/2001/XMLSchema-instance" xsi:noNamespaceSchemaLocation="http://sumo.dlr.de/xsd/netconvertConfiguration.xsd">

    <input>
        <type-files value="/usr/local/opt/sumo/share/sumo/data/typemap/osmNetconvert.typ.xml"/>
        <osm-files value="osm_bbox.osm.xml"/>
    </input>

    <output>
        <output-file value="osm.net.xml"/>
        <output.street-names value="true"/>
        <output.original-names value="true"/>
    </output>

    <projection>
        <proj.utm value="true"/>
    </projection>

    <processing>
        <geometry.remove value="true"/>
        <roundabouts.guess value="true"/>
    </processing>

    <tls_building>
        <tls.discard-simple value="true"/>
        <tls.join value="true"/>
        <tls.guess-signals value="true"/>
        <tls.default-type value="actuated"/>
    </tls_building>

    <ramp_guessing>
        <ramps.guess value="true"/>
    </ramp_guessing>

    <junctions>
        <junctions.join value="true"/>
        <junctions.corner-detail value="5"/>
    </junctions>

    <report>
        <verbose value="true"/>
        <aggregate-warnings value="5"/>
    </report>

</configuration>
-->

<net version="1.9" junctionCornerDetail="5" limitTurnSpeed="5.50" xmlns:xsi="http://www.w3.org/2001/XMLSchema-instance" xsi:noNamespaceSchemaLocation="http://sumo.dlr.de/xsd/net_file.xsd">

    <location netOffset="-391288.36,-5820031.59" convBoundary="0.00,0.00,796.40,952.55" origBoundary="13.397627,52.519696,13.409514,52.528166" projParameter="+proj=utm +zone=33 +ellps=WGS84 +datum=WGS84 +units=m +no_defs"/>

    <type id="highway.bridleway" priority="1" numLanes="1" speed="2.78" allow="pedestrian" oneway="1" width="2.00"/>
    <type id="highway.bus_guideway" priority="1" numLanes="1" speed="27.78" allow="bus" oneway="1"/>
    <type id="highway.cycleway" priority="1" numLanes="1" speed="8.33" allow="bicycle" oneway="0" width="1.00"/>
    <type id="highway.footway" priority="1" numLanes="1" speed="2.78" allow="pedestrian" oneway="1" width="2.00"/>
    <type id="highway.ford" priority="1" numLanes="1" speed="2.78" allow="army" oneway="0"/>
    <type id="highway.living_street" priority="2" numLanes="1" speed="2.78" disallow="tram rail_urban rail rail_electric rail_fast ship" oneway="0"/>
    <type id="highway.motorway" priority="14" numLanes="2" speed="39.44" allow="private emergency authority army vip passenger hov taxi bus coach delivery truck trailer motorcycle evehicle custom1 custom2" oneway="1"/>
    <type id="highway.motorway_link" priority="9" numLanes="1" speed="22.22" allow="private emergency authority army vip passenger hov taxi bus coach delivery truck trailer motorcycle evehicle custom1 custom2" oneway="1"/>
    <type id="highway.path" priority="1" numLanes="1" speed="2.78" allow="pedestrian bicycle" oneway="0" width="2.00"/>
    <type id="highway.pedestrian" priority="1" numLanes="1" speed="2.78" allow="pedestrian" oneway="1" width="2.00"/>
    <type id="highway.primary" priority="12" numLanes="2" speed="27.78" disallow="tram rail_urban rail rail_electric rail_fast ship" oneway="0"/>
    <type id="highway.primary_link" priority="7" numLanes="1" speed="22.22" disallow="tram rail_urban rail rail_electric rail_fast ship" oneway="0"/>
    <type id="highway.raceway" priority="15" numLanes="2" speed="83.33" allow="vip" oneway="0"/>
    <type id="highway.residential" priority="3" numLanes="1" speed="13.89" disallow="tram rail_urban rail rail_electric rail_fast ship" oneway="0"/>
    <type id="highway.secondary" priority="11" numLanes="1" speed="27.78" disallow="tram rail_urban rail rail_electric rail_fast ship" oneway="0"/>
    <type id="highway.secondary_link" priority="6" numLanes="1" speed="22.22" disallow="tram rail_urban rail rail_electric rail_fast ship" oneway="0"/>
    <type id="highway.service" priority="1" numLanes="1" speed="5.56" allow="pedestrian delivery bicycle" oneway="0"/>
    <type id="highway.stairs" priority="1" numLanes="1" speed="1.39" allow="pedestrian" oneway="1" width="2.00"/>
    <type id="highway.step" priority="1" numLanes="1" speed="1.39" allow="pedestrian" oneway="1" width="2.00"/>
    <type id="highway.steps" priority="1" numLanes="1" speed="1.39" allow="pedestrian" oneway="1" width="2.00"/>
    <type id="highway.tertiary" priority="10" numLanes="1" speed="22.22" disallow="tram rail_urban rail rail_electric rail_fast ship" oneway="0"/>
    <type id="highway.tertiary_link" priority="5" numLanes="1" speed="22.22" disallow="tram rail_urban rail rail_electric rail_fast ship" oneway="0"/>
    <type id="highway.track" priority="1" numLanes="1" speed="5.56" allow="pedestrian motorcycle moped bicycle" oneway="0"/>
    <type id="highway.trunk" priority="13" numLanes="2" speed="27.78" disallow="pedestrian bicycle tram rail_urban rail rail_electric rail_fast ship" oneway="0"/>
    <type id="highway.trunk_link" priority="8" numLanes="1" speed="22.22" disallow="pedestrian bicycle tram rail_urban rail rail_electric rail_fast ship" oneway="0"/>
    <type id="highway.unclassified" priority="4" numLanes="1" speed="13.89" disallow="tram rail_urban rail rail_electric rail_fast ship" oneway="0"/>
    <type id="highway.unsurfaced" priority="1" numLanes="1" speed="8.33" disallow="tram rail_urban rail rail_electric rail_fast ship" oneway="0"/>
    <type id="railway.highspeed" priority="21" numLanes="1" speed="69.44" allow="rail_fast" oneway="1"/>
    <type id="railway.light_rail" priority="19" numLanes="1" speed="27.78" allow="rail_urban" oneway="1"/>
    <type id="railway.preserved" priority="16" numLanes="1" speed="27.78" allow="rail" oneway="1"/>
    <type id="railway.rail" priority="20" numLanes="1" speed="44.44" allow="rail" oneway="1"/>
    <type id="railway.subway" priority="18" numLanes="1" speed="27.78" allow="rail_urban" oneway="1"/>
    <type id="railway.tram" priority="17" numLanes="1" speed="13.89" allow="tram" oneway="1"/>

    <edge id=":1157325174_0" function="internal">
        <lane id=":1157325174_0_0" index="0" disallow="tram rail_urban rail rail_electric rail_fast ship" speed="13.89" length="4.99" shape="421.86,134.68 418.82,138.61"/>
        <lane id=":1157325174_0_1" index="1" disallow="tram rail_urban rail rail_electric rail_fast ship" speed="13.89" length="4.99" shape="419.35,132.70 416.28,136.66"/>
    </edge>
    <edge id=":1275468904_0" function="internal">
        <lane id=":1275468904_0_0" index="0" disallow="tram rail_urban rail rail_electric rail_fast ship" speed="13.89" length="4.96" shape="632.70,382.58 630.75,378.02"/>
    </edge>
    <edge id=":1275468904_1" function="internal">
        <lane id=":1275468904_1_0" index="0" disallow="tram rail_urban rail rail_electric rail_fast ship" speed="13.89" length="4.99" shape="633.69,376.75 635.65,381.33"/>
    </edge>
    <edge id=":1633759814_0" function="internal">
        <lane id=":1633759814_0_0" index="0" allow="tram" speed="9.72" length="0.30" shape="313.63,271.26 313.78,271.01"/>
    </edge>
    <edge id=":1633759847_0" function="internal">
        <lane id=":1633759847_0_0" index="0" allow="tram" speed="13.89" length="18.04" shape="319.26,301.84 322.59,304.41 326.69,306.89 330.97,309.07 334.84,310.79"/>
    </edge>
    <edge id=":1633759847_1" function="internal">
        <lane id=":1633759847_1_0" index="0" allow="tram" speed="9.72" length="18.75" shape="317.07,304.83 334.84,310.79"/>
    </edge>
    <edge id=":1661927181_0" function="internal">
        <lane id=":1661927181_0_0" index="0" allow="tram" speed="13.89" length="1.37" shape="288.15,449.09 286.78,449.14"/>
    </edge>
    <edge id=":1661927181_1" function="internal">
        <lane id=":1661927181_1_0" index="0" allow="tram" speed="13.89" length="1.37" shape="288.15,449.09 286.78,449.14"/>
    </edge>
    <edge id=":1661927181_2" function="internal">
        <lane id=":1661927181_2_0" index="0" allow="tram" speed="13.89" length="1.38" shape="288.15,449.09 286.78,449.21"/>
    </edge>
    <edge id=":1686199539_0" function="internal">
        <lane id=":1686199539_0_0" index="0" disallow="tram rail_urban rail rail_electric rail_fast ship" speed="13.89" length="5.03" shape="411.49,113.89 414.56,109.92"/>
        <lane id=":1686199539_0_1" index="1" disallow="tram rail_urban rail rail_electric rail_fast ship" speed="13.89" length="5.03" shape="414.01,115.86 417.10,111.87"/>
    </edge>
    <edge id=":1813719507_0" function="internal">
        <lane id=":1813719507_0_0" index="0" allow="pedestrian delivery bicycle" speed="3.65" length="4.67" shape="211.89,308.62 211.43,307.26 211.60,306.38 212.40,305.99 213.84,306.08"/>
    </edge>
    <edge id=":1815252268_0" function="internal">
        <lane id=":1815252268_0_0" index="0" allow="pedestrian delivery bicycle" speed="3.65" length="4.67" shape="337.80,216.60 338.50,217.86 338.49,218.76 337.76,219.28 336.33,219.44"/>
    </edge>
    <edge id=":1815252289_0" function="internal">
        <lane id=":1815252289_0_0" index="0" allow="pedestrian delivery bicycle" speed="3.65" length="4.67" shape="276.80,267.74 275.56,268.48 274.67,268.50 274.12,267.79 273.91,266.36"/>
    </edge>
    <edge id=":1815335438_0" function="internal">
        <lane id=":1815335438_0_0" index="0" allow="pedestrian delivery bicycle" speed="5.56" length="5.03" shape="289.26,241.75 287.05,246.27"/>
    </edge>
    <edge id=":1815335438_1" function="internal">
        <lane id=":1815335438_1_0" index="0" allow="pedestrian delivery bicycle" speed="3.65" length="4.67" shape="289.26,241.75 288.01,242.47 287.12,242.47 286.58,241.75 286.40,240.32"/>
    </edge>
    <edge id=":1815335438_2" function="internal">
        <lane id=":1815335438_2_0" index="0" allow="pedestrian delivery bicycle" speed="5.56" length="5.10" shape="284.16,244.89 286.40,240.32"/>
    </edge>
    <edge id=":1815335438_3" function="internal">
        <lane id=":1815335438_3_0" index="0" allow="pedestrian delivery bicycle" speed="3.65" length="4.67" shape="284.16,244.89 285.40,244.16 286.29,244.14 286.84,244.85 287.05,246.27"/>
    </edge>
    <edge id=":1819917468_0" function="internal">
        <lane id=":1819917468_0_0" index="0" allow="pedestrian delivery bicycle" speed="3.65" length="4.67" shape="445.12,180.37 443.70,180.60 442.86,180.29 442.61,179.43 442.94,178.03"/>
    </edge>
    <edge id=":1827996501_0" function="internal">
        <lane id=":1827996501_0_0" index="0" disallow="tram rail_urban rail rail_electric rail_fast ship" speed="13.89" length="5.34" shape="565.66,98.47 569.87,102.05"/>
        <lane id=":1827996501_0_1" index="1" disallow="tram rail_urban rail rail_electric rail_fast ship" speed="13.89" length="5.34" shape="563.66,100.97 567.73,104.43"/>
        <lane id=":1827996501_0_2" index="2" disallow="tram rail_urban rail rail_electric rail_fast ship" speed="13.89" length="5.34" shape="561.67,103.48 565.60,106.81"/>
    </edge>
    <edge id=":1827996550_0" function="internal">
        <lane id=":1827996550_0_0" index="0" disallow="tram rail_urban rail rail_electric rail_fast ship" speed="13.89" length="5.00" shape="554.51,121.00 550.56,117.93"/>
        <lane id=":1827996550_0_1" index="1" disallow="tram rail_urban rail rail_electric rail_fast ship" speed="13.89" length="5.00" shape="556.48,118.47 552.53,115.40"/>
        <lane id=":1827996550_0_2" index="2" disallow="tram rail_urban rail rail_electric rail_fast ship" speed="13.89" length="5.00" shape="558.44,115.95 554.49,112.88"/>
    </edge>
    <edge id=":1827996603_0" function="internal">
        <lane id=":1827996603_0_0" index="0" disallow="tram rail_urban rail rail_electric rail_fast ship" speed="13.89" length="5.00" shape="565.31,129.40 561.36,126.33"/>
        <lane id=":1827996603_0_1" index="1" disallow="tram rail_urban rail rail_electric rail_fast ship" speed="13.89" length="5.00" shape="567.27,126.87 563.32,123.80"/>
        <lane id=":1827996603_0_2" index="2" disallow="tram rail_urban rail rail_electric rail_fast ship" speed="13.89" length="5.00" shape="569.24,124.35 565.29,121.27"/>
    </edge>
    <edge id=":1937657607_0" function="internal">
        <lane id=":1937657607_0_0" index="0" disallow="tram rail_urban rail rail_electric rail_fast ship" speed="8.33" length="4.97" shape="552.38,430.76 547.42,430.49"/>
    </edge>
    <edge id=":1937657607_1" function="internal">
        <lane id=":1937657607_1_0" index="0" disallow="tram rail_urban rail rail_electric rail_fast ship" speed="8.33" length="4.90" shape="547.62,427.30 552.52,427.56"/>
    </edge>
    <edge id=":2121324887_0" function="internal">
        <lane id=":2121324887_0_0" index="0" allow="pedestrian delivery bicycle" speed="3.65" length="4.67" shape="262.72,57.39 262.04,56.12 262.06,55.23 262.79,54.71 264.23,54.57"/>
    </edge>
    <edge id=":21487185_0" function="internal">
        <lane id=":21487185_0_0" index="0" disallow="tram rail_urban rail rail_electric rail_fast ship" speed="6.82" length="9.55" shape="649.06,425.21 647.92,423.02 646.26,421.68 644.08,421.20 641.38,421.57"/>
    </edge>
    <edge id=":21487185_1" function="internal">
        <lane id=":21487185_1_0" index="0" disallow="tram rail_urban rail rail_electric rail_fast ship" speed="8.33" length="14.54" shape="649.06,425.21 643.99,411.58"/>
    </edge>
    <edge id=":21487185_2" function="internal">
        <lane id=":21487185_2_0" index="0" disallow="tram rail_urban rail rail_electric rail_fast ship" speed="8.15" length="14.12" shape="649.06,425.21 648.37,421.47 649.03,418.33 651.04,415.80 654.40,413.87"/>
    </edge>
    <edge id=":21487185_3" function="internal">
        <lane id=":21487185_3_0" index="0" disallow="tram rail_urban rail rail_electric rail_fast ship" speed="3.65" length="4.67" shape="649.06,425.21 649.43,423.82 650.06,423.18 650.95,423.30 652.09,424.18"/>
    </edge>
    <edge id=":21487185_4" function="internal">
        <lane id=":21487185_4_0" index="0" disallow="tram rail_urban rail rail_electric rail_fast ship" speed="6.69" length="9.17" shape="655.60,416.84 653.40,418.09 652.08,419.74 651.65,421.77 652.09,424.18"/>
    </edge>
    <edge id=":21487185_5" function="internal">
        <lane id=":21487185_5_0" index="0" disallow="tram rail_urban rail rail_electric rail_fast ship" speed="8.33" length="14.99" shape="655.60,416.84 652.10,418.18 648.56,419.42 644.99,420.54 641.38,421.57"/>
    </edge>
    <edge id=":21487185_6" function="internal">
        <lane id=":21487185_6_0" index="0" disallow="tram rail_urban rail rail_electric rail_fast ship" speed="8.09" length="14.53" shape="655.60,416.84 651.81,417.74 648.62,417.17 646.01,415.12 643.99,411.58"/>
    </edge>
    <edge id=":21487185_7" function="internal">
        <lane id=":21487185_7_0" index="0" disallow="tram rail_urban rail rail_electric rail_fast ship" speed="3.65" length="4.67" shape="655.60,416.84 654.19,416.54 653.52,415.95 653.59,415.06 654.40,413.87"/>
    </edge>
    <edge id=":21487185_8" function="internal">
        <lane id=":21487185_8_0" index="0" disallow="tram rail_urban rail rail_electric rail_fast ship" speed="6.62" length="9.37" shape="646.95,410.38 648.27,412.69 649.94,414.05 651.99,414.44 654.40,413.87"/>
    </edge>
    <edge id=":21487185_9" function="internal">
        <lane id=":21487185_9_0" index="0" disallow="tram rail_urban rail rail_electric rail_fast ship" speed="8.33" length="14.73" shape="646.95,410.38 652.09,424.18"/>
    </edge>
    <edge id=":21487185_10" function="internal">
        <lane id=":21487185_10_0" index="0" disallow="tram rail_urban rail rail_electric rail_fast ship" speed="7.80" length="14.68" shape="646.95,410.38 647.93,414.36 647.33,417.55 645.15,419.95 641.38,421.57"/>
    </edge>
    <edge id=":21487185_11" function="internal">
        <lane id=":21487185_11_0" index="0" disallow="tram rail_urban rail rail_electric rail_fast ship" speed="3.65" length="4.67" shape="646.95,410.38 646.66,411.80 646.07,412.47 645.18,412.40 643.99,411.58"/>
    </edge>
    <edge id=":21487185_12" function="internal">
        <lane id=":21487185_12_0" index="0" disallow="tram rail_urban rail rail_electric rail_fast ship" speed="6.26" length="9.05" shape="640.56,418.48 642.87,417.48 644.22,416.00 644.59,414.03 643.99,411.58"/>
    </edge>
    <edge id=":21487185_13" function="internal">
        <lane id=":21487185_13_0" index="0" disallow="tram rail_urban rail rail_electric rail_fast ship" speed="8.33" length="14.60" shape="640.56,418.48 644.10,417.47 647.55,416.39 650.96,415.20 654.40,413.87"/>
    </edge>
    <edge id=":21487185_14" function="internal">
        <lane id=":21487185_14_0" index="0" disallow="tram rail_urban rail rail_electric rail_fast ship" speed="8.27" length="14.47" shape="640.56,418.48 644.58,417.95 647.84,418.72 650.35,420.80 652.09,424.18"/>
    </edge>
    <edge id=":21487185_15" function="internal">
        <lane id=":21487185_15_0" index="0" disallow="tram rail_urban rail rail_electric rail_fast ship" speed="3.65" length="4.67" shape="640.56,418.48 641.92,418.94 642.52,419.61 642.34,420.48 641.38,421.57"/>
    </edge>
    <edge id=":21487210_0" function="internal">
        <lane id=":21487210_0_0" index="0" disallow="tram rail_urban rail rail_electric rail_fast ship" speed="7.30" length="11.75" shape="484.80,62.71 482.51,61.63 480.12,61.86 477.62,63.41 475.00,66.26"/>
        <lane id=":21487210_0_1" index="1" disallow="tram rail_urban rail rail_electric rail_fast ship" speed="8.65" length="16.92" shape="486.77,60.19 483.24,58.40 479.68,58.49 476.08,60.47 472.45,64.33"/>
    </edge>
    <edge id=":2314394458_0" function="internal">
        <lane id=":2314394458_0_0" index="0" disallow="tram rail_urban rail rail_electric rail_fast ship" speed="8.33" length="5.22" shape="428.67,344.87 428.02,346.28 427.62,347.26 427.27,348.26 426.81,349.74"/>
    </edge>
    <edge id=":2314394458_1" function="internal">
        <lane id=":2314394458_1_0" index="0" disallow="tram rail_urban rail rail_electric rail_fast ship" speed="8.33" length="5.66" shape="423.76,348.81 424.25,347.20 424.62,346.11 425.06,345.05 425.76,343.52"/>
    </edge>
    <edge id=":2425782615_0" function="internal">
        <lane id=":2425782615_0_0" index="0" allow="pedestrian delivery bicycle" speed="4.72" length="5.59" shape="627.53,371.22 626.39,370.05 625.29,369.69 624.23,370.16 623.21,371.45"/>
    </edge>
    <edge id=":2425782615_1" function="internal">
        <lane id=":2425782615_1_0" index="0" disallow="tram rail_urban rail rail_electric rail_fast ship" speed="13.89" length="10.13" shape="627.53,371.22 625.77,368.80 624.50,367.15 623.09,365.63 620.89,363.61"/>
    </edge>
    <edge id=":2425782615_2" function="internal">
        <lane id=":2425782615_2_0" index="0" disallow="tram rail_urban rail rail_electric rail_fast ship" speed="13.89" length="10.81" shape="623.01,361.21 625.29,363.31 626.85,365.00 628.27,366.82 630.11,369.32"/>
    </edge>
    <edge id=":2425782615_3" function="internal">
        <lane id=":2425782615_3_0" index="0" allow="pedestrian delivery bicycle" speed="7.72" length="2.89" shape="623.01,361.21 624.56,363.20 624.64,363.57"/>
    </edge>
    <edge id=":2425782615_7" function="internal">
        <lane id=":2425782615_7_0" index="0" allow="pedestrian delivery bicycle" speed="7.72" length="8.29" shape="624.64,363.57 625.10,365.57 624.66,368.32 623.21,371.45"/>
    </edge>
    <edge id=":2425782615_4" function="internal">
        <lane id=":2425782615_4_0" index="0" allow="pedestrian delivery bicycle" speed="6.14" length="6.75" shape="620.45,369.83 621.44,367.81 621.84,366.10 621.66,364.70 620.89,363.61"/>
    </edge>
    <edge id=":2425782615_5" function="internal">
        <lane id=":2425782615_5_0" index="0" allow="pedestrian delivery bicycle" speed="6.67" length="12.50" shape="620.45,369.83 622.72,366.95 625.09,365.91 627.55,366.70 630.11,369.32"/>
    </edge>
    <edge id=":2425782615_6" function="internal">
        <lane id=":2425782615_6_0" index="0" allow="pedestrian delivery bicycle" speed="3.65" length="4.67" shape="620.45,369.83 621.75,369.20 622.64,369.26 623.13,370.01 623.21,371.45"/>
    </edge>
    <edge id=":2427148754_0" function="internal">
        <lane id=":2427148754_0_0" index="0" disallow="tram rail_urban rail rail_electric rail_fast ship" speed="13.89" length="5.94" shape="613.20,356.80 608.64,352.98"/>
    </edge>
    <edge id=":2427148754_1" function="internal">
        <lane id=":2427148754_1_0" index="0" allow="pedestrian delivery bicycle" speed="5.06" length="4.98" shape="615.02,350.03 614.29,351.18 614.09,352.29 614.43,353.36 615.32,354.40"/>
    </edge>
    <edge id=":2427148754_2" function="internal">
        <lane id=":2427148754_2_0" index="0" allow="pedestrian delivery bicycle" speed="6.14" length="7.68" shape="615.02,350.03 613.09,352.00 611.38,353.15 609.90,353.47 608.64,352.98"/>
    </edge>
    <edge id=":2427148754_3" function="internal">
        <lane id=":2427148754_3_0" index="0" disallow="tram rail_urban rail rail_electric rail_fast ship" speed="13.89" length="6.11" shape="610.63,350.47 615.32,354.40"/>
    </edge>
    <edge id=":2550263263_0" function="internal">
        <lane id=":2550263263_0_0" index="0" disallow="tram rail_urban rail rail_electric rail_fast ship" speed="8.33" length="5.07" shape="261.43,450.15 256.37,450.39"/>
    </edge>
    <edge id=":2550263264_0" function="internal">
        <lane id=":2550263264_0_0" index="0" disallow="tram rail_urban rail rail_electric rail_fast ship" speed="8.33" length="3.01" shape="229.42,451.16 226.40,451.23"/>
    </edge>
    <edge id=":2550263264_1" function="internal">
        <lane id=":2550263264_1_0" index="0" allow="tram" speed="13.89" length="3.01" shape="229.41,451.13 226.40,451.24"/>
    </edge>
    <edge id=":258017932_0" function="internal">
        <lane id=":258017932_0_0" index="0" allow="pedestrian delivery bicycle" speed="3.65" length="4.67" shape="238.52,324.97 238.99,326.34 238.82,327.21 238.02,327.61 236.58,327.51"/>
    </edge>
    <edge id=":262477593_0" function="internal">
        <lane id=":262477593_0_0" index="0" disallow="tram rail_urban rail rail_electric rail_fast ship" speed="3.65" length="4.67" shape="732.76,375.42 734.20,375.47 734.96,375.94 735.04,376.84 734.44,378.15"/>
    </edge>
    <edge id=":27411236_0" function="internal">
        <lane id=":27411236_0_0" index="0" allow="rail_urban" speed="19.44" length="0.25" shape="637.94,405.61 638.18,405.54"/>
    </edge>
    <edge id=":27411243_0" function="internal">
        <lane id=":27411243_0_0" index="0" allow="rail_urban" speed="16.67" length="0.28" shape="213.14,313.88 213.43,313.89"/>
    </edge>
    <edge id=":27411252_0" function="internal">
        <lane id=":27411252_0_0" index="0" disallow="tram rail_urban rail rail_electric rail_fast ship" speed="8.33" length="12.35" shape="414.37,393.35 410.68,392.04 407.48,391.52 404.76,391.78 402.53,392.83"/>
    </edge>
    <edge id=":27411252_1" function="internal">
        <lane id=":27411252_1_0" index="0" disallow="tram rail_urban rail rail_electric rail_fast ship" speed="8.22" length="16.32" shape="414.37,393.35 410.96,391.10 409.34,388.07 409.51,384.27 411.46,379.67"/>
    </edge>
    <edge id=":27411252_2" function="internal">
        <lane id=":27411252_2_0" index="0" disallow="tram rail_urban rail rail_electric rail_fast ship" speed="3.65" length="4.67" shape="414.37,393.35 413.59,392.14 413.54,391.25 414.22,390.67 415.64,390.41"/>
    </edge>
    <edge id=":27411252_3" function="internal">
        <lane id=":27411252_3_0" index="0" disallow="tram rail_urban rail rail_electric rail_fast ship" speed="6.45" length="9.60" shape="413.54,382.48 412.47,385.09 412.46,387.28 413.51,389.05 415.64,390.41"/>
    </edge>
    <edge id=":27411252_4" function="internal">
        <lane id=":27411252_4_0" index="0" disallow="tram rail_urban rail rail_electric rail_fast ship" speed="8.33" length="15.23" shape="413.54,382.48 411.35,385.52 408.63,388.19 405.61,390.59 402.53,392.83"/>
    </edge>
    <edge id=":27411252_5" function="internal">
        <lane id=":27411252_5_0" index="0" disallow="tram rail_urban rail rail_electric rail_fast ship" speed="3.76" length="1.45" shape="413.54,382.48 412.10,382.55"/>
    </edge>
    <edge id=":27411252_9" function="internal">
        <lane id=":27411252_9_0" index="0" disallow="tram rail_urban rail rail_electric rail_fast ship" speed="3.76" length="3.65" shape="412.10,382.55 411.97,382.56 411.10,382.12 410.93,381.16 411.46,379.67"/>
    </edge>
    <edge id=":27411252_6" function="internal">
        <lane id=":27411252_6_0" index="0" disallow="tram rail_urban rail rail_electric rail_fast ship" speed="8.33" length="15.22" shape="400.65,390.23 403.71,387.96 406.65,385.48 409.30,382.74 411.46,379.67"/>
    </edge>
    <edge id=":27411252_7" function="internal">
        <lane id=":27411252_7_0" index="0" disallow="tram rail_urban rail rail_electric rail_fast ship" speed="8.33" length="3.53" shape="400.65,390.23 403.64,388.77 403.84,388.74"/>
    </edge>
    <edge id=":27411252_8" function="internal">
        <lane id=":27411252_8_0" index="0" disallow="tram rail_urban rail rail_electric rail_fast ship" speed="3.65" length="1.44" shape="400.65,390.23 402.10,390.18"/>
    </edge>
    <edge id=":27411252_10" function="internal">
        <lane id=":27411252_10_0" index="0" disallow="tram rail_urban rail rail_electric rail_fast ship" speed="8.33" length="12.12" shape="403.84,388.74 407.13,388.31 411.13,388.86 415.64,390.41"/>
    </edge>
    <edge id=":27411252_11" function="internal">
        <lane id=":27411252_11_0" index="0" disallow="tram rail_urban rail rail_electric rail_fast ship" speed="3.65" length="3.23" shape="402.10,390.18 402.89,390.60 403.03,391.48 402.53,392.83"/>
    </edge>
    <edge id=":275525455_0" function="internal">
        <lane id=":275525455_0_0" index="0" disallow="tram rail_urban rail rail_electric rail_fast ship" speed="8.33" length="14.88" shape="449.61,250.17 436.41,243.29"/>
    </edge>
    <edge id=":275525455_1" function="internal">
        <lane id=":275525455_1_0" index="0" disallow="tram rail_urban rail rail_electric rail_fast ship" speed="7.54" length="4.52" shape="449.61,250.17 445.90,247.58"/>
    </edge>
    <edge id=":275525455_2" function="internal">
        <lane id=":275525455_2_0" index="0" disallow="tram rail_urban rail rail_electric rail_fast ship" speed="3.65" length="1.44" shape="449.61,250.17 448.90,248.91"/>
    </edge>
    <edge id=":275525455_9" function="internal">
        <lane id=":275525455_9_0" index="0" disallow="tram rail_urban rail rail_electric rail_fast ship" speed="7.54" length="11.13" shape="445.90,247.58 444.35,244.66 444.97,241.42 447.75,237.85"/>
    </edge>
    <edge id=":275525455_10" function="internal">
        <lane id=":275525455_10_0" index="0" disallow="tram rail_urban rail rail_electric rail_fast ship" speed="3.65" length="3.23" shape="448.90,248.91 448.90,248.02 449.62,247.48 451.05,247.31"/>
    </edge>
    <edge id=":275525455_3" function="internal">
        <lane id=":275525455_3_0" index="0" disallow="tram rail_urban rail rail_electric rail_fast ship" speed="5.91" length="9.10" shape="449.97,240.15 448.35,242.22 448.00,244.11 448.89,245.81 451.05,247.31"/>
    </edge>
    <edge id=":275525455_4" function="internal">
        <lane id=":275525455_4_0" index="0" disallow="tram rail_urban rail rail_electric rail_fast ship" speed="8.33" length="14.98" shape="449.97,240.15 446.52,242.86 443.11,244.29 439.74,244.44 436.41,243.29"/>
    </edge>
    <edge id=":275525455_5" function="internal">
        <lane id=":275525455_5_0" index="0" disallow="tram rail_urban rail rail_electric rail_fast ship" speed="3.65" length="4.67" shape="449.97,240.15 448.55,240.41 447.71,240.11 447.44,239.26 447.75,237.85"/>
    </edge>
    <edge id=":275525455_6" function="internal">
        <lane id=":275525455_6_0" index="0" disallow="tram rail_urban rail rail_electric rail_fast ship" speed="8.02" length="10.91" shape="437.93,240.48 440.25,241.24 442.66,241.05 445.16,239.92 447.75,237.85"/>
    </edge>
    <edge id=":275525455_7" function="internal">
        <lane id=":275525455_7_0" index="0" disallow="tram rail_urban rail rail_electric rail_fast ship" speed="8.33" length="14.79" shape="437.93,240.48 451.05,247.31"/>
    </edge>
    <edge id=":275525455_8" function="internal">
        <lane id=":275525455_8_0" index="0" disallow="tram rail_urban rail rail_electric rail_fast ship" speed="3.65" length="1.44" shape="437.93,240.48 438.61,241.75"/>
    </edge>
    <edge id=":275525455_11" function="internal">
        <lane id=":275525455_11_0" index="0" disallow="tram rail_urban rail rail_electric rail_fast ship" speed="3.65" length="3.23" shape="438.61,241.75 438.58,242.65 437.85,243.16 436.41,243.29"/>
    </edge>
    <edge id=":275525459_0" function="internal">
        <lane id=":275525459_0_0" index="0" disallow="tram rail_urban rail rail_electric rail_fast ship" speed="3.65" length="4.67" shape="524.83,167.34 526.26,167.15 527.09,167.48 527.32,168.35 526.95,169.74"/>
    </edge>
    <edge id=":2796688606_0" function="internal">
        <lane id=":2796688606_0_0" index="0" disallow="tram rail_urban rail rail_electric rail_fast ship" speed="8.33" length="12.37" shape="460.88,267.19 461.14,263.06 460.85,259.73 459.99,257.21 458.56,255.50"/>
    </edge>
    <edge id=":2796688606_1" function="internal">
        <lane id=":2796688606_1_0" index="0" disallow="tram rail_urban rail rail_electric rail_fast ship" speed="7.95" length="3.93" shape="460.88,267.19 461.87,263.39"/>
    </edge>
    <edge id=":2796688606_2" function="internal">
        <lane id=":2796688606_2_0" index="0" disallow="tram rail_urban rail rail_electric rail_fast ship" speed="3.66" length="1.45" shape="460.88,267.19 461.69,265.98"/>
    </edge>
    <edge id=":2796688606_9" function="internal">