<?xml version="1.0" encoding="UTF-8"?>

<!-- generated on 2022-05-23 18:01:51 by Eclipse SUMO polyconvert Version 1.12.0
<configuration xmlns:xsi="http://www.w3.org/2001/XMLSchema-instance" xsi:noNamespaceSchemaLocation="http://sumo.dlr.de/xsd/polyconvertConfiguration.xsd">

    <input>
        <net-file value="osm.net.xml"/>
        <osm-files value="osm_bbox.osm.xml"/>
        <osm.keep-full-type value="true"/>
        <type-file value="/usr/local/opt/sumo/share/sumo/data/typemap/osmPolyconvert.typ.xml"/>
    </input>

    <output>
        <output-file value="osm.poly.xml"/>
    </output>

    <processing>
        <poi-layer-offset value="5"/>
    </processing>

    <report>
        <verbose value="true"/>
    </report>

</configuration>
-->

<additional xmlns:xsi="http://www.w3.org/2001/XMLSchema-instance" xsi:noNamespaceSchemaLocation="http://sumo.dlr.de/xsd/additional_file.xsd">
    <location netOffset="-391288.36,-5820031.59" convBoundary="-1583.61,-827.64,2688.96,2090.76" origBoundary="13.374251,52.512168,13.436728,52.538857" projParameter="+proj=utm +zone=33 +ellps=WGS84 +datum=WGS84 +units=m +no_defs"/>

    <poly id="100950874" type="building.commercial" color="255,230,230" fill="1" layer="-1.00" shape="359.961041,297.340460 340.631240,288.799334 336.486371,278.475624 348.219327,258.108409 361.574252,265.335171 359.961041,297.340460"/>
    <poly id="100950876" type="building.commercial" color="255,230,230" fill="1" layer="-1.00" shape="398.298570,239.107352 385.395787,263.061144 385.297971,305.893434 385.366465,311.444591 386.735520,315.342349 388.691247,318.759772 391.328481,321.995206 396.323956,325.979668 399.501180,327.545151 419.313318,335.196755 451.138451,267.593994 398.298570,239.107352"/>
    <poly id="100950877" type="building.commercial" color="255,230,230" fill="1" layer="-1.00" shape="430.148103,274.200499 410.453627,316.075175 404.201735,313.898902 401.525302,312.266701 399.921583,309.420124 398.870629,303.946335 400.579909,272.283899 425.980749,272.367572 430.148103,274.200499"/>
    <poly id="100950878" type="building.commercial" color="255,230,230" fill="1" layer="-1.00" shape="368.933269,315.402344 374.254207,301.575424 375.672733,269.663471 375.593155,265.759444 374.050572,261.075468 371.563956,256.979884 367.611305,253.194925 363.661743,251.390614 342.171688,240.015223 322.917291,274.146846 321.144102,280.206126 321.278157,285.956130 322.969703,292.461721 329.824201,300.088209 368.933269,315.402344"/>
    <poly id="1043377446" type="natural.scrub" color="140,196,107" fill="1" layer="-4.00" shape="312.750046,211.000187 309.776404,216.796724 328.524260,226.630293 331.640773,220.541288 312.750046,211.000187"/>
    <poly id="1043377447" type="natural.scrub" color="140,196,107" fill="1" layer="-4.00" shape="301.764745,222.827190 291.217383,243.702395 314.197266,254.610613 327.008259,229.590404 308.241042,219.801780 305.612206,224.923031 301.764745,222.827190"/>
    <poly id="1043377448" type="natural.scrub" color="140,196,107" fill="1" layer="-4.00" shape="288.205957,257.600680 285.098598,255.822295 289.403369,247.303390 312.440606,258.043415 300.137516,282.084324 280.923416,272.339085 288.205957,257.600680"/>
    <poly id="1043377453" type="landuse.grass" color="194,194,130" fill="1" layer="-3.00" shape="448.081597,171.074072 454.442959,168.062529 463.864522,164.082018 470.598111,161.941348 476.127576,160.906677 487.407198,160.223424 479.953234,154.646316 483.051788,150.805587 475.972816,144.997645 475.124324,144.382125 473.569516,143.748833 471.896865,143.618887 470.443872,143.906935 469.114572,144.570588 468.334810,145.222095 467.680116,146.004369 449.026228,167.748294 448.321645,169.343988 448.081597,171.074072"/>
    <poly id="1043377454" type="landuse.grass" color="194,194,130" fill="1" layer="-3.00" shape="449.554858,175.080818 474.302353,202.397287 476.968984,198.977819 484.663407,189.638637 488.122596,184.610416 491.348615,180.088091 494.190006,172.903647 495.904994,168.192164 493.671273,166.016005 492.422165,165.086635 490.627357,164.035793 489.117934,163.612917 487.286055,163.341826 482.469148,163.448275 479.427240,164.016243 469.364047,165.685239 452.304084,172.327167 449.554858,175.080818"/>
    <poly id="1043377455" type="landuse.grass" color="194,194,130" fill="1" layer="-3.00" shape="478.097099,202.725139 478.896912,202.674080 514.047367,169.371425 511.866306,167.427774 508.608377,168.356578 502.700518,168.854322 496.941741,175.791653 495.129128,178.235265 489.593956,187.304160 483.384946,194.752199 478.123450,201.767584 478.097099,202.725139"/>
    <poly id="125736711" type="building.viaduct" color="255,230,230" fill="1" layer="-1.00" shape="420.058605,386.701048 462.448948,403.423306 478.414077,408.700978 496.420328,413.588640 514.517197,417.050032 525.722129,418.849950 536.365261,420.105924 547.691266,420.935116 557.574540,421.284330 565.582137,421.218756 572.956609,421.067027 582.543653,420.910964 595.240449,419.885074 606.238698,418.473866 615.391207,417.081171 626.847655,414.903220 637.906377,412.233333 631.525461,395.282197 612.030901,399.529258 594.422277,401.887580 581.160886,402.859171 570.397067,403.208137 559.687673,403.255479 539.047780,402.353801 518.911283,399.660672 508.346612,397.657452 486.547832,392.230415 479.229893,389.721528 470.051929,386.586109 454.286598,380.525113 429.729288,369.450850 420.058605,386.701048"/>
    <poly id="147686957" type="building.residential" color="255,230,230" fill="1" layer="-1.00" shape="414.294659,403.208340 406.088515,400.129441 403.342205,400.245820 400.312649,401.058376 394.444432,405.483427 402.206875,414.892596 404.220579,413.568384 409.610154,413.894287 414.294659,403.208340"/>
    <poly id="147686966" type="building.residential" color="255,230,230" fill="1" layer="-1.00" shape="226.456230,458.141340 228.090428,458.071753 239.553978,458.062615 241.038671,471.160311 241.011658,484.035558 241.159745,498.687345 227.671465,499.208698 227.689733,484.408566 235.382716,484.238142 235.063945,472.605720 229.025981,472.728351 227.198881,472.668679 226.456230,458.141340"/>
    <poly id="16603261" type="landuse.grass" color="194,194,130" fill="1" layer="-3.00" shape="658.785587,147.125426 659.218893,147.382927 659.840199,147.547261 660.483981,147.499674 661.028854,147.276228 661.482341,146.910141 677.436386,126.428395 677.803310,125.830539 677.957709,125.137224 677.933100,124.637026 677.786616,124.150644 677.532563,123.711146 677.109144,123.286511 676.586658,122.986465 676.074636,122.853101 633.323021,120.280066 632.543793,120.341773 631.810180,120.625025 631.262693,121.037700 630.833487,121.581295 630.530819,122.322395 630.453264,123.114165 630.590848,123.812165 630.896569,124.439690 631.363153,124.974644 658.785587,147.125426"/>
    <poly id="170013760" type="building.yes" color="255,230,230" fill="1" layer="-1.00" shape="237.476035,443.308919 248.308972,442.712880 248.160007,437.519584 235.156207,428.360285 230.698814,430.283955 231.112622,430.886807 235.933812,435.887581 237.476035,443.308919"/>
    <poly id="170063224" type="building.train_station" color="255,230,230" fill="1" layer="-1.00" shape="407.846342,359.307915 400.903338,355.956280 393.196463,352.131936 391.085798,351.221649 389.015345,350.288218 368.722349,341.456723 327.912876,326.280379 297.270392,316.910436 279.960860,311.941295 277.627127,311.380951 276.297071,311.087701 274.946663,310.794903 261.112000,307.651705 232.005661,303.600524 206.700807,302.636653 192.449096,302.117877 191.921617,304.043515 190.794134,307.684975 189.285716,313.126423 188.063741,317.404251 187.288936,320.114305 217.550255,324.217523 238.710312,327.131564 269.176157,334.958317 270.569234,335.339189 271.697484,335.714799 361.891081,368.926125 363.276116,364.956310 379.942180,370.919200 382.022750,371.696616 384.103320,372.474033 398.739273,378.715574 407.846342,359.307915"/>
    <poly id="170063225" type="building.train_station" color="255,230,230" fill="1" layer="-1.00" shape="266.501220,318.070204 262.437132,335.919868 297.153608,345.666756 330.762100,356.573423 360.499916,367.710615 367.334392,351.123933 317.962566,333.032517 289.643595,324.067425 266.501220,318.070204"/>
    <poly id="170131442" type="landuse.grass" color="194,194,130" fill="1" layer="-3.00" shape="352.491710,234.623657 361.451008,239.210294 365.416675,231.310981 362.676526,229.869379 362.533985,228.948942 362.137824,228.223285 361.253440,227.519558 360.250244,227.274692 359.289828,227.429472 358.559199,227.846231 356.547778,226.822485 352.491710,234.623657"/>
    <poly id="170852439" type="leisure.park" color="207,245,201" fill="1" layer="-2.00" shape="280.923416,272.339085 300.137516,282.084324 312.440606,258.043415 314.197266,254.610613 327.008259,229.590404 328.524260,226.630293 331.640773,220.541288 312.750046,211.000187 309.776404,216.796724 308.241042,219.801780 305.612206,224.923031 301.764745,222.827190 291.217383,243.702395 289.403369,247.303390 285.098598,255.822295 288.205957,257.600680 280.923416,272.339085"/>
    <poly id="170855131" type="building.commercial" color="255,230,230" fill="1" layer="-1.00" shape="359.264870,63.086532 407.177200,101.318282 448.567116,49.950648 416.047382,23.896643 391.644841,4.250844 359.264870,63.086532"/>
    <poly id="170855133" type="building.office" color="255,230,230" fill="1" layer="-1.00" shape="344.164021,90.482965 355.413834,70.037461 381.040193,90.701999 379.131636,93.103266 369.885815,104.724708 344.164021,90.482965"/>
    <poly id="170860163" type="building.office" color="255,230,230" fill="1" layer="-1.00" shape="528.446483,193.756562 530.368186,192.256397 531.010408,190.294883 534.934059,186.625130 538.721460,189.078560 549.190557,200.564672 548.894119,203.431009 543.142335,207.920061 540.453536,207.879302 530.006506,196.470614 528.446483,193.756562"/>
    <poly id="170860164" type="building.office" color="255,230,230" fill="1" layer="-1.00" shape="511.364657,209.545645 513.401436,208.031803 513.679508,206.178480 518.489230,201.754715 520.537195,203.512140 527.980443,211.682270 528.915996,211.016203 529.943660,212.061750 529.190887,213.013096 531.201331,214.916012 530.988283,217.869529 525.756902,222.870103 523.287078,222.601965 521.294188,220.264689 520.468661,220.995092 519.417695,219.816531 519.876379,219.071977 512.170259,210.985560 511.364657,209.545645"/>
    <poly id="171826989" type="landuse.grass" color="194,194,130" fill="1" layer="-3.00" shape="561.289708,113.435557 564.181849,115.919906 562.201288,118.445093 567.228528,122.328881 572.624207,125.069524 632.907977,172.522068 690.800772,218.102984 747.393762,262.656086 753.039813,255.521247 578.276965,117.934334 574.799284,114.138724 570.956895,111.041079 568.503718,109.070029 566.900288,111.152910 565.128440,109.912365 564.182270,109.176583 561.289708,113.435557"/>
    <poly id="171826996" type="landuse.grass" color="194,194,130" fill="1" layer="-3.00" shape="464.034159,72.564976 456.264511,66.839090 407.225288,131.116914 404.179450,129.359347 360.871298,186.010942 371.498460,191.428651 464.034159,72.564976"/>
    <poly id="171829341" type="landuse.grass" color="194,194,130" fill="1" layer="-3.00" shape="561.742682,103.210435 507.736906,61.016888 505.654444,62.309188 503.941551,62.202374 502.152192,64.778999 511.701676,71.800943 553.301046,106.390178 553.625938,107.885226 556.347552,109.716810 561.742682,103.210435"/>
    <poly id="182814027" type="tourism.attraction" color="207,245,201" fill="1" layer="-2.00" shape="398.739273,378.715574 399.030902,382.080786 341.043786,423.990584 327.386006,433.729064 317.922374,438.233790 309.379298,439.557916 301.766177,439.659687 294.041384,437.783229 291.908302,436.472887 319.539059,416.521428 319.775846,414.646749 319.774069,413.033285 299.807455,395.025706 282.636764,379.148435 267.661932,366.193664 251.589380,352.406423 243.689671,345.704529 241.026540,343.448975 235.734683,338.959362 234.787025,338.156911 227.930729,333.824365 222.684992,328.966533 217.550255,324.217523 238.710312,327.131564 269.176157,334.958317 270.569234,335.339189 271.697484,335.714799 361.891081,368.926125 363.276116,364.956310 379.942180,370.919200 382.022750,371.696616 384.103320,372.474033 398.739273,378.715574"/>
    <poly id="195401025" type="man_made.bridge" color="255,230,230" fill="1" layer="-1.00" shape="420.058605,386.701048 398.739273,378.715574 407.846342,359.307915 415.587995,362.864450 416.746314,363.372959 423.097993,366.381609 429.729288,369.450850 420.058605,386.701048"/>
    <poly id="195401028" type="man_made.bridge" color="255,230,230" fill="1" layer="-1.00" shape="644.717104,391.764066 631.525461,395.282197 637.906377,412.233333 650.802337,408.543701 644.717104,391.764066"/>
    <poly id="195401031" type="building.viaduct" color="255,230,230" fill="1" layer="-1.00" shape="644.717104,391.764066 650.802337,408.543701 667.948931,402.779609 684.981363,395.838574 698.017465,389.575508 710.139468,383.410530 730.298074,371.103987 744.875183,360.845655 733.362847,343.874005 729.097852,346.838962 727.828901,348.391421 722.748446,354.389938 712.622926,360.911442 699.379214,368.536609 686.333986,375.311740 674.029384,380.891043 660.419569,386.376774 652.662985,389.207420 644.717104,391.764066"/>
    <poly id="195401031#1" type="landuse.railway" color="194,194,130" fill="1" layer="-3.00" shape="644.717104,391.764066 650.802337,408.543701 667.948931,402.779609 684.981363,395.838574 698.017465,389.575508 710.139468,383.410530 730.298074,371.103987 744.875183,360.845655 733.362847,343.874005 729.097852,346.838962 727.828901,348.391421 722.748446,354.389938 712.622926,360.911442 699.379214,368.536609 686.333986,375.311740 674.029384,380.891043 660.419569,386.376774 652.662985,389.207420 644.717104,391.764066"/>
    <poly id="198215717" type="landuse.residential" color="235,235,227" fill="1" layer="-3.00" shape="383.681473,559.582864 381.590858,558.961458 380.185058,558.002202 379.008465,556.359092 361.758485,513.242945 355.395524,497.449011 336.647937,450.471419 336.321026,448.887407 336.701540,446.453167 338.456990,443.888351 342.270591,441.088818 349.148827,435.995949 365.535073,423.493155 381.349048,411.503820 393.004396,402.978187 403.260508,395.017655 404.584176,394.409744 409.300429,394.672647 416.757239,397.935036 416.404531,398.866427 416.141881,399.573274 429.072049,404.495058 446.789476,411.358510 462.935854,417.466694 478.152484,422.660762 489.808752,425.841571 509.173009,430.142886 527.449098,432.810305 540.916554,434.104041 548.819858,434.541483 560.669972,434.825004 579.610497,434.696045 603.938933,432.667796 620.218676,430.071775 626.784341,428.947626 639.858930,425.665741 646.529222,424.361268 647.365373,424.420709 649.065499,426.107966 649.426229,427.691250 649.314935,429.106908 645.680692,430.199718 649.518481,442.021537 655.575124,459.046615 664.732164,476.626433 683.442376,516.829296 690.430712,531.485938 694.380368,529.618399 695.177122,530.969515 695.668847,532.338488 695.913089,534.180279 695.254759,536.642868 694.156854,537.946758 690.218577,540.637488 689.457646,540.910208 688.508053,539.707123 670.569455,550.774235 654.299001,560.847632 641.914530,568.320487 635.468662,570.866310 624.202758,575.510372 613.010396,578.873165 604.117325,581.550947 595.860711,581.699859 554.221219,567.229956 495.175866,547.080495 491.746287,546.065785 487.497190,545.436400 480.365892,545.527251 383.681473,559.582864"/>
    <poly id="198218165" type="landuse.residential" color="235,235,227" fill="1" layer="-3.00" shape="655.525312,424.185006 655.060878,423.438579 655.347173,422.263865 656.085719,421.591041 657.043159,421.302853 664.197072,419.153164 678.237872,413.824846 702.597490,403.050129 712.745804,397.874534 718.087445,394.796796 724.007371,391.472633 737.089298,383.283592 752.118710,372.915160 751.417498,370.972166 752.601771,369.888938 754.374625,369.026414 755.821107,369.061291 757.759066,369.530437 758.672709,370.333736 759.801316,371.343720 759.571555,372.005312 758.491413,372.885946 772.992521,404.135209 782.652853,425.164815 785.283294,430.570477 796.634996,454.745316 799.532424,461.179964 802.141655,467.164735 802.716075,467.975517 803.570265,469.470043 803.645850,471.360064 803.071648,473.331170 802.306603,474.649954 800.661441,476.377599 783.482915,484.690148 763.141178,494.830647 747.312856,503.425135 706.413047,527.728359 706.980448,528.528157 707.053778,530.006507 705.183895,531.082615 703.084823,531.306956 700.316911,530.132848 699.142139,528.567517 698.908042,527.493306 700.328313,526.649664 687.926044,500.094654 680.368360,483.937225 671.492215,465.549996 666.209842,454.082735 655.525312,424.185006"/>
    <poly id="217530887" type="amenity.place_of_worship" color="237,199,199" fill="1" layer="-1.00" shape="375.538779,140.875619 376.428976,141.534710 383.363701,132.223300 367.491827,120.467580 366.028742,122.447277 360.564145,129.789985 375.538779,140.875619"/>
    <poly id="217530887#1" type="building.chapel" color="255,230,230" fill="1" layer="-1.00" shape="375.538779,140.875619 376.428976,141.534710 383.363701,132.223300 367.491827,120.467580 366.028742,122.447277 360.564145,129.789985 375.538779,140.875619"/>
    <poly id="224960467" type="building.residential" color="255,230,230" fill="1" layer="-1.00" shape="270.690372,483.945736 247.916340,484.127423 247.813870,470.921216 259.506317,470.829160 270.587962,470.739530 270.690372,483.945736"/>
    <poly id="225034823" type="building.residential" color="255,230,230" fill="1" layer="-1.00" shape="351.476736,438.136574 359.804542,449.168925 375.390468,437.307017 367.048512,425.941125 355.239907,435.204636 351.476736,438.136574"/>
    <poly id="225034826" type="building.residential" color="255,230,230" fill="1" layer="-1.00" shape="613.374854,473.631549 613.307324,473.032150 612.961834,473.062032 608.139277,473.513449 599.678409,474.256619 599.666040,473.388940 598.648526,462.962603 604.911902,462.290200 605.874242,462.224444 606.313928,466.153902 612.598143,465.503304 620.744756,464.666945 620.504943,461.489750 625.042095,461.022391 629.593342,471.648924 632.460006,471.452122 632.845486,472.311565 635.206188,477.789871 636.688769,481.306848 629.955855,485.305594 628.229469,479.045487 617.571595,479.881630 617.500138,479.104277 618.096142,479.046610 618.051084,478.235291 617.845628,473.232414 613.374854,473.631549"/>
    <poly id="225034827" type="building.residential" color="255,230,230" fill="1" layer="-1.00" shape="589.453589,451.670822 590.593388,464.253210 570.490210,461.826205 571.073041,452.566310 589.453589,451.670822"/>
    <poly id="234463917" type="building.residential" color="255,230,230" fill="1" layer="-1.00" shape="546.503802,167.118859 543.399153,164.539066 546.858514,159.822457 545.666392,159.014219 553.617215,148.367563 598.698509,183.915121 662.837624,234.487634 667.458210,229.177986 682.027555,240.707440 675.080997,249.807252 663.707391,264.679812 571.389500,192.418655 565.061917,187.740139 557.330016,197.847820 555.712821,195.925081 554.077680,197.185227 538.065857,179.679105 540.899697,176.144705 540.220978,175.224979 546.503802,167.118859"/>
    <poly id="234463934" type="amenity.school" color="237,199,199" fill="1" layer="-2.00" shape="615.529836,369.552208 598.773054,356.390983 579.862697,341.608229 580.148674,341.034407 578.593020,339.744575 579.817322,336.479414 568.170746,327.289277 548.000164,311.388327 547.132073,312.342218 538.458440,305.924018 526.722918,297.937718 521.747795,304.701926 520.498481,303.761427 510.565979,316.555050 509.911743,317.971581 509.683338,319.000366 509.741438,320.401159 509.951985,321.943241 511.130796,323.686482 513.195627,325.287744 512.178637,326.567631 511.022866,328.017499 500.898028,340.704119 497.102020,337.549872 481.744184,356.995347 468.030559,345.803649 455.712710,362.444628 469.231249,372.794906 484.908046,376.999599 483.820825,379.093360 493.852407,381.542285 509.505508,385.291348 525.705102,387.971265 531.636285,388.541273 546.047298,388.912848 559.221362,388.288046 570.121412,386.422697 573.602188,385.756069 581.104718,383.409393 605.010672,367.458753 611.836023,372.560300 615.529836,369.552208"/>
    <poly id="234463935" type="amenity.parking" color="184,184,179" fill="1" layer="-1.00" shape="627.397387,358.318464 644.709994,337.617422 633.871529,329.054699 632.975150,330.265133 631.131382,328.836985 632.015420,327.682461 631.152428,327.022725 621.164636,318.563657 612.948420,311.645619 598.039339,330.535552 597.434379,332.340449 597.251355,334.503241 627.397387,358.318464"/>
    <poly id="234463940" type="landuse.recreation_ground" color="194,194,130" fill="1" layer="-3.00" shape="598.039339,330.535552 612.948420,311.645619 639.461260,279.702929 637.244501,277.982565 644.540657,266.582700 641.485185,260.997317 640.620868,259.970399 584.237823,216.059259 582.871693,215.054557 580.076285,214.181562 577.940702,214.295482 575.330710,214.442133 572.621687,215.636965 569.910148,217.332595 567.491165,219.366722 537.902468,259.244947 534.142078,264.157384 535.830431,267.458365 528.975332,280.684710 557.201004,299.267470 598.039339,330.535552"/>
    <poly id="234463942" type="leisure.pitch" color="207,245,201" fill="1" layer="-2.00" shape="543.990634,263.227676 566.045591,280.233143 596.290757,241.186293 574.242771,224.191663 543.990634,263.227676"/>
    <poly id="234463942#1" type="sport.soccer" color="79,230,125" fill="1" layer="-2.00" shape="543.990634,263.227676 566.045591,280.233143 596.290757,241.186293 574.242771,224.191663 543.990634,263.227676"/>
    <poly id="234463944" type="leisure.playground" color="207,245,201" fill="1" layer="-2.00" shape="570.431674,286.134053 582.623358,267.749140 597.417234,253.780101 607.300798,255.665026 617.692014,260.253895 636.064220,270.942601 599.527572,315.858799 593.320320,311.088575 580.685647,303.567104 566.873527,296.516770 570.431674,286.134053"/>
    <poly id="234973637" type="building.retail" color="255,230,230" fill="1" layer="-1.00" shape="621.164636,318.563657 631.152428,327.022725 632.015420,327.682461 631.131382,328.836985 632.975150,330.265133 633.871529,329.054699 644.709994,337.617422 646.037984,338.433812 663.480220,351.902771 664.876290,352.728792 666.242105,352.798805 700.432949,333.839845 699.956036,327.296223 700.327844,325.997223 700.534134,324.579471 700.695549,322.973541 700.653195,321.360976 700.429140,319.819185 699.913121,318.272707 699.046939,316.544782 697.562172,314.774864 697.022337,310.302359 706.046581,298.775451 711.378245,303.242424 714.381161,299.370570 718.084197,302.315607 727.103520,291.178314 723.324629,288.179304 725.979282,284.827005 730.359328,278.766046 693.101444,249.476504 682.027555,240.707440 675.080997,249.807252 666.359564,261.216259 663.707391,264.679812 621.164636,318.563657"/>
    <poly id="237202142" type="building.commercial" color="255,230,230" fill="1" layer="-1.00" shape="503.881780,234.603391 506.755295,238.089600 509.566898,235.701812 520.326289,226.840220 504.790994,211.549195 500.414654,215.618443 503.337549,217.345400 511.070812,225.431204 510.858417,228.106517 503.426302,233.956928 503.881780,234.603391"/>
    <poly id="237202144" type="building.commercial" color="255,230,230" fill="1" layer="-1.00" shape="493.953633,233.776778 499.001164,239.195653 503.881780,234.603391 503.426302,233.956928 510.858417,228.106517 511.070812,225.431204 503.337549,217.345400 500.414654,215.618443 496.250996,219.482699 497.134024,222.890483 494.987330,224.651568 495.486803,227.288897 497.999486,229.803847 493.953633,233.776778"/>
    <poly id="237202146" type="building.office" color="255,230,230" fill="1" layer="-1.00" shape="421.398003,206.626930 420.390175,205.558711 443.099947,177.237612 444.458058,178.798833 460.647458,196.645691 460.227913,197.011048 468.587255,205.472414 468.165989,205.759915 469.082660,206.696627 464.000682,212.005540 462.626413,210.633840 460.515175,213.384512 452.246239,205.021309 447.660460,209.440190 445.348710,206.497974 447.107414,205.301824 446.141080,203.654049 437.795205,206.242121 433.291563,202.402526 424.936846,209.809064 421.398003,206.626930"/>
    <poly id="237206971" type="building.commercial" color="255,230,230" fill="1" layer="-1.00" shape="733.362847,343.874005 723.404265,330.573598 698.080888,349.370180 685.967092,357.448946 673.781150,364.717022 663.060574,370.105620 657.984972,372.320724 639.654033,379.168104 644.717104,391.764066 652.662985,389.207420 660.419569,386.376774 674.029384,380.891043 686.333986,375.311740 699.379214,368.536609 712.622926,360.911442 722.748446,354.389938 727.828901,348.391421 729.097852,346.838962 733.362847,343.874005"/>
    <poly id="237314765" type="building.office" color="255,230,230" fill="1" layer="-1.00" shape="222.037864,266.666244 228.864163,253.707143 229.331898,253.986099 246.390906,221.582981 245.882216,221.293802 248.014959,217.374159 252.882178,219.847968 254.961145,215.951773 234.085808,205.075098 230.065065,212.931233 226.381615,210.887455 219.231015,208.597788 212.064133,229.776623 203.188849,228.070444 210.121482,279.037090 217.263131,280.314327 217.529604,278.861833 219.342831,279.211129 221.442473,279.620846 221.134801,281.051996 244.464224,285.064153 244.702829,283.578896 247.946649,284.163579 252.910260,271.991318 222.037864,266.666244"/>
    <poly id="237314766" type="building.yes" color="255,230,230" fill="1" layer="-1.00" shape="239.508111,165.496496 238.271059,167.871821 232.014147,179.883571 239.331262,183.560520 248.802658,188.580719 256.296902,174.204793 239.508111,165.496496"/>
    <poly id="237314767" type="building.yes" color="255,230,230" fill="1" layer="-1.00" shape="239.241929,207.720537 242.036867,202.439783 242.225729,202.079516 234.540943,198.043496 234.352081,198.403763 232.360235,197.346250 239.331262,183.560520 232.014147,179.883571 227.501918,188.841099 225.493760,192.869268 222.416092,198.868462 239.241929,207.720537"/>
    <poly id="23748107" type="building.residential" color="255,230,230" fill="1" layer="-1.00" shape="680.384305,429.589781 684.262210,440.464895 684.907941,442.353466 684.190151,442.736511 672.177523,448.620957 669.315309,451.788701 669.098784,451.203716 669.584199,450.747903 661.014364,426.868037 660.945210,426.502352 660.943404,426.112927 661.009684,425.733127 661.150834,425.362802 661.346747,425.013525 661.604697,424.707388 661.904824,424.467087 662.240098,424.281648 665.305964,423.268157 665.824494,423.390247 666.147759,423.583411 666.370246,423.823309 666.489746,424.009841 671.605684,422.394743 671.745275,421.646115 672.224890,421.234941 673.020987,421.017080 682.250472,417.575338 705.124055,407.434305 714.821540,428.596499 716.447275,432.143725 716.252669,432.860181 715.854215,433.258434 707.653131,437.167044 706.772769,437.564799 706.144471,437.389488 705.682094,437.043603 701.906023,428.936994 701.787912,428.505624 701.983006,427.811411 702.174345,427.562384 704.467576,426.599342 702.085597,421.076965 680.384305,429.589781"/>
    <poly id="23748121" type="building.residential" color="255,230,230" fill="1" layer="-1.00" shape="676.045980,466.451010 675.696390,465.679792 674.678465,465.379550 674.100991,464.123747 674.534168,463.146091 670.940826,455.324789 669.880231,454.936469 669.259842,453.581465 669.650352,452.515729 669.315309,451.788701 672.177523,448.620957 684.190151,442.736511 686.553335,447.714044 684.516437,448.604674 682.934616,447.971915 681.630793,448.557057 685.505712,457.451530 686.655465,456.958808 686.988504,454.826093 689.401377,453.749129 691.835825,458.880878 676.045980,466.451010"/>
    <poly id="23748317" type="building.residential" color="255,230,230" fill="1" layer="-1.00" shape="637.980142,449.097381 636.308050,443.759662 627.100422,445.420598 627.260854,448.076549 628.272894,448.109849 628.463119,452.423153 626.953754,453.535843 628.131110,455.523949 626.773358,456.432996 623.323601,456.965372 622.564426,449.938370 620.869393,434.029959 623.611667,433.424177 623.415888,432.549419 626.813266,431.795648 627.009043,432.670406 632.000327,431.558758 631.811334,430.683851 635.107199,429.943454 635.303221,430.829334 638.842328,430.039061 641.703412,431.433632 642.645223,434.127977 643.493871,433.831059 645.000913,438.148685 644.152266,438.445602 645.637727,442.708067 637.980142,449.097381"/>
    <poly id="23748322" type="building.residential" color="255,230,230" fill="1" layer="-1.00" shape="603.109119,450.111912 603.278129,452.233549 604.064579,452.193932 604.911902,462.290200 598.648526,462.962603 596.292928,437.120721 601.849819,436.419403 601.768720,435.820303 605.322215,435.374643 605.403314,435.973742 609.423923,435.473263 611.962029,435.150171 611.887715,434.550922 615.461564,434.104820 615.542662,434.703919 620.869393,434.029959 622.564426,449.938370 619.518756,450.328298 618.593966,448.712957 611.068260,449.390953 603.109119,450.111912"/>
    <poly id="23748438" type="building.construction" color="255,230,230" fill="1" layer="-1.00" shape="365.271627,472.938924 352.015047,478.106145 373.680890,534.900535 393.598114,527.393890 390.653679,518.857386 382.230520,521.914642 377.719366,510.975861 402.052185,500.878985 393.493050,479.380612 382.304400,483.222333 376.352765,468.532034 365.271627,472.938924"/>
    <poly id="23748442" type="building.residential" color="255,230,230" fill="1" layer="-1.00" shape="351.476736,438.136574 341.742949,445.462516 340.970978,449.530048 351.237342,476.087002 352.015047,478.106145 365.271627,472.938924 364.437440,470.820881 356.816754,451.560705 359.804542,449.168925 351.476736,438.136574"/>
    <poly id="23748457" type="building.residential" color="255,230,230" fill="1" layer="-1.00" shape="383.085125,413.891231 367.048512,425.941125 375.390468,437.307017 378.481370,435.280178 381.772381,438.923992 391.379944,431.411755 388.054172,427.423749 388.403113,425.401934 390.546197,424.097109 383.085125,413.891231"/>
    <poly id="23748459" type="building.residential" color="255,230,230" fill="1" layer="-1.00" shape="402.206875,414.892596 394.444432,405.483427 392.861708,406.653451 383.085125,413.891231 390.546197,424.097109 400.665841,416.106206 402.206875,414.892596"/>