<?xml version="1.0" encoding="UTF-8"?>

<!-- generated on 2022-05-23 18:01:54 by Eclipse SUMO duarouter Version 1.12.0
<configuration xmlns:xsi="http://www.w3.org/2001/XMLSchema-instance" xsi:noNamespaceSchemaLocation="http://sumo.dlr.de/xsd/duarouterConfiguration.xsd">

    <input>
        <net-file value="/usr/local/Cellar/sumo/1.12.0/share/sumo/2022-05-23-18-01-31/osm.net.xml"/>
        <route-files value="/usr/local/Cellar/sumo/1.12.0/share/sumo/2022-05-23-18-01-31/osm.passenger.trips.xml"/>
    </input>

    <output>
        <output-file value="/usr/local/Cellar/sumo/1.12.0/share/sumo/2022-05-23-18-01-31/osm.passenger.trips.xml.tmp"/>
        <write-trips value="true"/>
    </output>

    <time>
        <begin value="0"/>
        <end value="3600"/>
    </time>

    <report>
        <no-warnings value="true"/>
        <ignore-errors value="true"/>
        <no-step-log value="true"/>
    </report>

</configuration>
-->

<routes xmlns:xsi="http://www.w3.org/2001/XMLSchema-instance" xsi:noNamespaceSchemaLocation="http://sumo.dlr.de/xsd/routes_file.xsd">
    <vType id="veh_passenger" vClass="passenger"/>
    <trip id="veh1" type="veh_passenger" depart="2.39" departLane="best" departSpeed="max" from="24914992#0" to="202157002#2"/>
    <trip id="veh2" type="veh_passenger" depart="4.78" departLane="best" departSpeed="max" from="-55741054" to="202157002#2"/>
    <trip id="veh5" type="veh_passenger" depart="11.95" departLane="best" from="-234463928#0" to="-28016312#0"/>
    <trip id="veh6" type="veh_passenger" depart="14.34" departLane="best" from="316746323#1" to="202157002#2"/>
    <trip id="veh7" type="veh_passenger" depart="16.73" departLane="best" departSpeed="max" from="28016312#0" to="25294729#1"/>
    <trip id="veh8" type="veh_passenger" depart="19.12" departLane="best" from="370359204#2" to="202157002#2"/>
    <trip id="veh11" type="veh_passenger" depart="26.28" departLane="best" departSpeed="max" from="24914992#0" to="202157002#2"/>
    <trip id="veh12" type="veh_passenger" depart="28.67" departLane="best" departSpeed="max" from="83517332#0" to="202157002#2"/>
    <trip id="veh14" type="veh_passenger" depart="33.45" departLane="best" departSpeed="max" from="-55741054" to="156364570#0"/>
    <trip id="veh15" type="veh_passenger" depart="35.84" departLane="best" departSpeed="max" from="24914992#0" to="46140376#1"/>
    <trip id="veh17" type="veh_passenger" depart="40.62" departLane="best" from="84960595" to="188914559"/>
    <trip id="veh18" type="veh_passenger" depart="43.01" departLane="best" from="-234463931#3" to="202157002#2"/>
    <trip id="veh20" type="veh_passenger" depart="47.79" departLane="best" from="84960595" to="188914559"/>
    <trip id="veh21" type="veh_passenger" depart="50.18" departLane="best" departSpeed="max" from="24914992#0" to="202157002#1"/>
    <trip id="veh22" type="veh_passenger" depart="52.57" departLane="best" departSpeed="max" from="-55741054" to="202157002#2"/>
    <trip id="veh23" type="veh_passenger" depart="54.96" departLane="best" from="4773465#0" to="168942727#0"/>
    <trip id="veh25" type="veh_passenger" depart="59.74" departLane="best" from="490365295#1" to="46140376#1"/>
    <trip id="veh26" type="veh_passenger" depart="62.13" departLane="best" departSpeed="max" from="24914992#0" to="-370359204#1"/>
    <trip id="veh27" type="veh_passenger" depart="64.52" departLane="best" departSpeed="max" from="28016312#0" to="188914559"/>
    <trip id="veh29" type="veh_passenger" depart="69.29" departLane="best" from="4773465#0" to="30721660#2"/>
    <trip id="veh30" type="veh_passenger" depart="71.68" departLane="best" departSpeed="max" from="-55741054" to="46140376#1"/>
    <trip id="veh33" type="veh_passenger" depart="78.85" departLane="best" from="83517332#1" to="202157002#2"/>
    <trip id="veh35" type="veh_passenger" depart="83.63" departLane="best" from="-25294729#0" to="1024034690"/>
    <trip id="veh36" type="veh_passenger" depart="86.02" departLane="best" departSpeed="max" from="-188914559" to="202157002#2"/>
    <trip id="veh37" type="veh_passenger" depart="88.41" departLane="best" departSpeed="max" from="-55741054" to="46140376#1"/>
    <trip id="veh38" type="veh_passenger" depart="90.80" departLane="best" departSpeed="max" from="-55741054" to="-28016312#3"/>
    <trip id="veh39" type="veh_passenger" depart="93.19" departLane="best" departSpeed="max" from="83517332#0" to="202157002#2"/>
    <trip id="veh41" type="veh_passenger" depart="97.97" departLane="best" departSpeed="max" from="28016312#0" to="1024034690"/>
    <trip id="veh42" type="veh_passenger" depart="100.36" departLane="best" departSpeed="max" from="83517332#0" to="-28016312#0"/>
    <trip id="veh44" type="veh_passenger" depart="105.14" departLane="best" departSpeed="max" from="-55741054" to="46140376#1"/>
    <trip id="veh45" type="veh_passenger" depart="107.53" departLane="best" from="84960595" to="30721660#2"/>
    <trip id="veh48" type="veh_passenger" depart="114.69" departLane="best" departSpeed="max" from="-55741054" to="30721660#1"/>
    <trip id="veh49" type="veh_passenger" depart="117.08" departLane="best" departSpeed="max" from="83517332#0" to="202157002#2"/>
    <trip id="veh50" type="veh_passenger" depart="119.47" departLane="best" departSpeed="max" from="-188914559" to="202157002#2"/>
    <trip id="veh51" type="veh_passenger" depart="121.86" departLane="best" departSpeed="max" from="-55741054" to="-28016312#0"/>
    <trip id="veh52" type="veh_passenger" depart="124.25" departLane="best" departSpeed="max" from="24914992#0" to="202157002#2"/>
    <trip id="veh55" type="veh_passenger" depart="131.42" departLane="best" from="4773465#0" to="46140376#1"/>
    <trip id="veh56" type="veh_passenger" depart="133.81" departLane="best" departSpeed="max" from="24914992#0" to="-156364570#1"/>
    <trip id="veh58" type="veh_passenger" depart="138.59" departLane="best" departSpeed="max" from="24914992#0" to="4773465#0"/>
    <trip id="veh59" type="veh_passenger" depart="140.98" departLane="best" departSpeed="max" from="-25294729#1" to="-28016312#0"/>
    <trip id="veh60" type="veh_passenger" depart="143.37" departLane="best" from="-234463931#3" to="202157002#2"/>
    <trip id="veh61" type="veh_passenger" depart="145.76" departLane="best" from="-62363401" to="202157002#2"/>
    <trip id="veh63" type="veh_passenger" depart="150.54" departLane="best" from="316746323#0" to="-28016312#0"/>
    <trip id="veh65" type="veh_passenger" depart="155.32" departLane="best" departSpeed="max" from="24914992#0" to="202157002#2"/>
    <trip id="veh66" type="veh_passenger" depart="157.70" departLane="best" departSpeed="max" from="-188914559" to="46140376#1"/>
    <trip id="veh68" type="veh_passenger" depart="162.48" departLane="best" departSpeed="max" from="-25294729#1" to="-28016312#0"/>
    <trip id="veh69" type="veh_passenger" depart="164.87" departLane="best" from="4773465#3" to="1024034690"/>
    <trip id="veh70" type="veh_passenger" depart="167.26" departLane="best" departSpeed="max" from="-55741054" to="-28016312#0"/>
    <trip id="veh71" type="veh_passenger" depart="169.65" departLane="best" departSpeed="max" from="28016312#0" to="46140376#1"/>
    <trip id="veh72" type="veh_passenger" depart="172.04" departLane="best" departSpeed="max" from="-25294729#1" to="46140382"/>
    <trip id="veh73" type="veh_passenger" depart="174.43" departLane="best" departSpeed="max" from="28016312#0" to="46140376#1"/>
    <trip id="veh75" type="veh_passenger" depart="179.21" departLane="best" departSpeed="max" from="28016312#0" to="168942727#1"/>
    <trip id="veh76" type="veh_passenger" depart="181.60" departLane="best" departSpeed="max" from="-55741054" to="30721660#2"/>
    <trip id="veh77" type="veh_passenger" depart="183.99" departLane="best" departSpeed="max" from="28016312#0" to="1024034690"/>
    <trip id="veh79" type="veh_passenger" depart="188.77" departLane="best" departSpeed="max" from="83517332#0" to="202157002#1"/>
    <trip id="veh80" type="veh_passenger" depart="191.16" departLane="best" departSpeed="max" from="83517332#0" to="-28016312#0"/>
    <trip id="veh81" type="veh_passenger" depart="193.55" departLane="best" departSpeed="max" from="-55741054" to="25294729#0"/>
    <trip id="veh83" type="veh_passenger" depart="198.33" departLane="best" departSpeed="max" from="83517332#0" to="234463931#4"/>
    <trip id="veh85" type="veh_passenger" depart="203.10" departLane="best" departSpeed="max" from="24914992#0" to="171826985#3"/>
    <trip id="veh88" type="veh_passenger" depart="210.27" departLane="best" departSpeed="max" from="28016312#0" to="-743631784"/>
    <trip id="veh89" type="veh_passenger" depart="212.66" departLane="best" departSpeed="max" from="28016312#0" to="25294729#1"/>
    <trip id="veh90" type="veh_passenger" depart="215.05" departLane="best" departSpeed="max" from="-55741054" to="183415643"/>
    <trip id="veh92" type="veh_passenger" depart="219.83" departLane="best" departSpeed="max" from="24914992#0" to="-156364570#1"/>
    <trip id="veh93" type="veh_passenger" depart="222.22" departLane="best" departSpeed="max" from="-55741054" to="316746323#1"/>
    <trip id="veh95" type="veh_passenger" depart="227.00" departLane="best" departSpeed="max" from="24914992#0" to="4773465#3"/>
    <trip id="veh96" type="veh_passenger" depart="229.39" departLane="best" departSpeed="max" from="-55741054" to="202157002#2"/>
    <trip id="veh97" type="veh_passenger" depart="231.78" departLane="best" from="25294729#0" to="188914559"/>
    <trip id="veh102" type="veh_passenger" depart="243.73" departLane="best" from="234463928#1" to="202157002#2"/>
    <trip id="veh107" type="veh_passenger" depart="255.67" departLane="best" from="-168942727#2" to="202157002#2"/>
    <trip id="veh108" type="veh_passenger" depart="258.06" departLane="best" from="24914992#1" to="30721660#2"/>
    <trip id="veh109" type="veh_passenger" depart="260.45" departLane="best" departSpeed="max" from="-55741054" to="-28016312#0"/>
    <trip id="veh110" type="veh_passenger" depart="262.84" departLane="best" from="-168942727#1" to="202157002#1"/>
    <trip id="veh112" type="veh_passenger" depart="267.62" departLane="best" departSpeed="max" from="24914992#0" to="30721660#0"/>
    <trip id="veh113" type="veh_passenger" depart="270.01" departLane="best" departSpeed="max" from="83517332#0" to="1024034690"/>
    <trip id="veh114" type="veh_passenger" depart="272.40" departLane="best" from="24914992#1" to="-28016312#0"/>
    <trip id="veh116" type="veh_passenger" depart="277.18" departLane="best" departSpeed="max" from="24914992#0" to="-28016312#0"/>
    <trip id="veh117" type="veh_passenger" depart="279.57" departLane="best" departSpeed="max" from="24914992#0" to="202157002#2"/>
    <trip id="veh118" type="veh_passenger" depart="281.96" departLane="best" from="316746323#1" to="202157002#2"/>
    <trip id="veh120" type="veh_passenger" depart="286.74" departLane="best" from="316746323#1" to="30721660#2"/>
    <trip id="veh121" type="veh_passenger" depart="289.13" departLane="best" departSpeed="max" from="24914992#0" to="30721660#2"/>
    <trip id="veh122" type="veh_passenger" depart="291.52" departLane="best" departSpeed="max" from="24914992#0" to="490365295#0"/>
    <trip id="veh123" type="veh_passenger" depart="293.90" departLane="best" from="-62363401" to="30721660#2"/>
    <trip id="veh125" type="veh_passenger" depart="298.68" departLane="best" departSpeed="max" from="-55741054" to="370359204#0"/>
    <trip id="veh127" type="veh_passenger" depart="303.46" departLane="best" from="316746323#1" to="1024034690"/>
    <trip id="veh128" type="veh_passenger" depart="305.85" departLane="best" from="-387892378" to="30721660#2"/>
    <trip id="veh130" type="veh_passenger" depart="310.63" departLane="best" departSpeed="max" from="24914992#0" to="202157002#2"/>
    <trip id="veh132" type="veh_passenger" depart="315.41" departLane="best" from="-234463931#0" to="1024034690"/>
    <trip id="veh133" type="veh_passenger" depart="317.80" departLane="best" departSpeed="max" from="24914992#0" to="171826985#3"/>
    <trip id="veh135" type="veh_passenger" depart="322.58" departLane="best" departSpeed="max" from="-55741054" to="-28016312#0"/>
    <trip id="veh136" type="veh_passenger" depart="324.97" departLane="best" from="-316746323#0" to="-28016312#0"/>
    <trip id="veh137" type="veh_passenger" depart="327.36" departLane="best" from="-25302636#1" to="1024034690"/>
    <trip id="veh138" type="veh_passenger" depart="329.75" departLane="best" departSpeed="max" from="83517332#0" to="188914559"/>
    <trip id="veh139" type="veh_passenger" depart="332.14" departLane="best" from="-743631784" to="-28016312#0"/>
    <trip id="veh140" type="veh_passenger" depart="334.53" departLane="best" from="-316746323#0" to="1024034690"/>
    <trip id="veh141" type="veh_passenger" depart="336.91" departLane="best" departSpeed="max" from="83517332#0" to="202157002#2"/>
    <trip id="veh142" type="veh_passenger" depart="339.30" departLane="best" departSpeed="max" from="24914992#0" to="-28016312#0"/>
    <trip id="veh146" type="veh_passenger" depart="348.86" departLane="best" departSpeed="max" from="-188914559" to="202157002#2"/>
    <trip id="veh147" type="veh_passenger" depart="351.25" departLane="best" departSpeed="max" from="-188914559" to="-370359204#1"/>
    <trip id="veh148" type="veh_passenger" depart="353.64" departLane="best" from="83517332#1" to="-28016312#0"/>
    <trip id="veh149" type="veh_passenger" depart="356.03" departLane="best" departSpeed="max" from="28016312#0" to="1024034690"/>
    <trip id="veh151" type="veh_passenger" depart="360.81" departLane="best" departSpeed="max" from="24914992#0" to="202157002#2"/>
    <trip id="veh152" type="veh_passenger" depart="363.20" departLane="best" departSpeed="max" from="24914992#0" to="4773465#2"/>
    <trip id="veh153" type="veh_passenger" depart="365.59" departLane="best" from="-370359204#1" to="1024034690"/>
    <trip id="veh154" type="veh_passenger" depart="367.98" departLane="best" departSpeed="max" from="24914992#0" to="-387892378"/>
    <trip id="veh155" type="veh_passenger" depart="370.37" departLane="best" departSpeed="max" from="-25294729#1" to="-28016312#0"/>
    <trip id="veh156" type="veh_passenger" depart="372.76" departLane="best" departSpeed="max" from="-55741054" to="25294728"/>
    <trip id="veh157" type="veh_passenger" depart="375.15" departLane="best" departSpeed="max" from="24914992#0" to="46140376#1"/>
    <trip id="veh158" type="veh_passenger" depart="377.54" departLane="best" departSpeed="max" from="24914992#0" to="4773465#0"/>
    <trip id="veh159" type="veh_passenger" depart="379.93" departLane="best" departSpeed="max" from="24914992#0" to="46140376#1"/>
    <trip id="veh160" type="veh_passenger" depart="382.31" departLane="best" from="-84960595" to="-28016312#0"/>
    <trip id="veh161" type="veh_passenger" depart="384.70" departLane="best" departSpeed="max" from="83517332#0" to="188914559"/>
    <trip id="veh165" type="veh_passenger" depart="394.26" departLane="best" from="490365295#1" to="1024034690"/>
    <trip id="veh166" type="veh_passenger" depart="396.65" departLane="best" departSpeed="max" from="24914992#0" to="202157002#2"/>
    <trip id="veh168" type="veh_passenger" depart="401.43" departLane="best" departSpeed="max" from="24914992#0" to="370359204#1"/>
    <trip id="veh171" type="veh_passenger" depart="408.60" departLane="best" departSpeed="max" from="83517332#0" to="234463928#1"/>
    <trip id="veh174" type="veh_passenger" depart="415.77" departLane="best" from="25294728" to="1024034690"/>
    <trip id="veh175" type="veh_passenger" depart="418.16" departLane="best" departSpeed="max" from="24914992#0" to="156364556#1"/>
    <trip id="veh176" type="veh_passenger" depart="420.55" departLane="best" from="234463931#1" to="-28016312#0"/>
    <trip id="veh178" type="veh_passenger" depart="425.33" departLane="best" from="28016312#1" to="188914559"/>
    <trip id="veh179" type="veh_passenger" depart="427.71" departLane="best" from="-62363401" to="30721660#2"/>
    <trip id="veh180" type="veh_passenger" depart="430.10" departLane="best" departSpeed="max" from="83517332#0" to="156364556#1"/>
    <trip id="veh181" type="veh_passenger" depart="432.49" departLane="best" from="-62363402" to="30721660#2"/>
    <trip id="veh182" type="veh_passenger" depart="434.88" departLane="best" from="171826985#1" to="30721660#2"/>
    <trip id="veh184" type="veh_passenger" depart="439.66" departLane="best" departSpeed="max" from="24914992#0" to="84960595"/>
    <trip id="veh187" type="veh_passenger" depart="446.83" departLane="best" departSpeed="max" from="28016312#0" to="-234463931#1"/>
    <trip id="veh189" type="veh_passenger" depart="451.61" departLane="best" departSpeed="max" from="24914992#0" to="30721660#2"/>
    <trip id="veh190" type="veh_passenger" depart="454.00" departLane="best" departSpeed="max" from="83517332#0" to="188914559"/>
    <trip id="veh191" type="veh_passenger" depart="456.39" departLane="best" departSpeed="max" from="24914992#0" to="46140376#0"/>
    <trip id="veh193" type="veh_passenger" depart="461.17" departLane="best" departSpeed="max" from="24914992#0" to="-387892378"/>
    <trip id="veh194" type="veh_passenger" depart="463.56" departLane="best" departSpeed="max" from="24914992#0" to="370359204#0"/>
    <trip id="veh196" type="veh_passenger" depart="468.34" departLane="best" departSpeed="max" from="-188914559" to="202157002#2"/>
    <trip id="veh198" type="veh_passenger" depart="473.11" departLane="best" departSpeed="max" from="24914992#0" to="46140376#1"/>
    <trip id="veh199" type="veh_passenger" depart="475.50" departLane="best" departSpeed="max" from="-188914559" to="30721660#2"/>
    <trip id="veh201" type="veh_passenger" depart="480.28" departLane="best" from="234463931#4" to="30721660#2"/>
    <trip id="veh202" type="veh_passenger" depart="482.67" departLane="best" departSpeed="max" from="-25294729#1" to="-28016312#0"/>
    <trip id="veh204" type="veh_passenger" depart="487.45" departLane="best" departSpeed="max" from="-55741054" to="46140376#1"/>
    <trip id="veh205" type="veh_passenger" depart="489.84" departLane="best" departSpeed="max" from="-55741054" to="156364570#1"/>
    <trip id="veh206" type="veh_passenger" depart="492.23" departLane="best" from="-156364570#3" to="30721660#2"/>
    <trip id="veh207" type="veh_passenger" depart="494.62" departLane="best" departSpeed="max" from="-55741054" to="316746323#0"/>
    <trip id="veh210" type="veh_passenger" depart="501.79" departLane="best" from="234463931#5" to="202157002#2"/>
    <trip id="veh212" type="veh_passenger" depart="506.57" departLane="best" departSpeed="max" from="83517332#0" to="234463928#1"/>
    <trip id="veh213" type="veh_passenger" depart="508.96" departLane="best" from="-62363402" to="202157002#2"/>
    <trip id="veh214" type="veh_passenger" depart="511.35" departLane="best" departSpeed="max" from="-188914559" to="202157002#2"/>
    <trip id="veh216" type="veh_passenger" depart="516.12" departLane="best" from="-77348147" to="30721660#2"/>
    <trip id="veh217" type="veh_passenger" depart="518.51" departLane="best" departSpeed="max" from="24914992#0" to="202157002#2"/>
    <trip id="veh218" type="veh_passenger" depart="520.90" departLane="best" departSpeed="max" from="24914992#0" to="30721660#2"/>
    <trip id="veh219" type="veh_passenger" depart="523.29" departLane="best" departSpeed="max" from="24914992#0" to="46140376#1"/>
    <trip id="veh220" type="veh_passenger" depart="525.68" departLane="best" departSpeed="max" from="24914992#0" to="-28016312#0"/>
    <trip id="veh221" type="veh_passenger" depart="528.07" departLane="best" departSpeed="max" from="28016312#0" to="188914559"/>
    <trip id="veh222" type="veh_passenger" depart="530.46" departLane="best" departSpeed="max" from="28016312#0" to="25294729#1"/>
    <trip id="veh224" type="veh_passenger" depart="535.24" departLane="best" departSpeed="max" from="83517332#0" to="30721660#2"/>
    <trip id="veh226" type="veh_passenger" depart="540.02" departLane="best" departSpeed="max" from="24914992#0" to="202157002#2"/>
    <trip id="veh227" type="veh_passenger" depart="542.41" departLane="best" departSpeed="max" from="28016312#0" to="46140376#1"/>
    <trip id="veh229" type="veh_passenger" depart="547.19" departLane="best" from="156364570#0" to="188914559"/>
    <trip id="veh231" type="veh_passenger" depart="551.97" departLane="best" departSpeed="max" from="24914992#0" to="-387892378"/>
    <trip id="veh233" type="veh_passenger" depart="556.75" departLane="best" departSpeed="max" from="83517332#0" to="-234463928#0"/>
    <trip id="veh235" type="veh_passenger" depart="561.52" departLane="best" departSpeed="max" from="24914992#0" to="202157002#2"/>
    <trip id="veh236" type="veh_passenger" depart="563.91" departLane="best" from="-370359204#1" to="1024034690"/>
    <trip id="veh238" type="veh_passenger" depart="568.69" departLane="best" departSpeed="max" from="-25294729#1" to="46140376#1"/>
    <trip id="veh239" type="veh_passenger" depart="571.08" departLane="best" departSpeed="max" from="-25294729#1" to="-28016312#0"/>
    <trip id="veh240" type="veh_passenger" depart="573.47" departLane="best" departSpeed="max" from="-55741054" to="-77348147"/>
    <trip id="veh241" type="veh_passenger" depart="575.86" departLane="best" from="-168942727#0" to="30721660#2"/>
    <trip id="veh242" type="veh_passenger" depart="578.25" departLane="best" from="24914992#1" to="183415643"/>
    <trip id="veh243" type="veh_passenger" depart="580.64" departLane="best" departSpeed="max" from="28016312#0" to="188914559"/>
    <trip id="veh244" type="veh_passenger" depart="583.03" departLane="best" departSpeed="max" from="28016312#0" to="46140376#0"/>
    <trip id="veh245" type="veh_passenger" depart="585.42" departLane="best" departSpeed="max" from="83517332#0" to="-234463931#5"/>
    <trip id="veh246" type="veh_passenger" depart="587.81" departLane="best" departSpeed="max" from="-188914559" to="202157002#2"/>
    <trip id="veh247" type="veh_passenger" depart="590.20" departLane="best" departSpeed="max" from="24914992#0" to="202157002#2"/>
    <trip id="veh249" type="veh_passenger" depart="594.98" departLane="best" departSpeed="max" from="24914992#0" to="-28016312#0"/>
    <trip id="veh250" type="veh_passenger" depart="597.37" departLane="best" departSpeed="max" from="24914992#0" to="370359204#0"/>
    <trip id="veh251" type="veh_passenger" depart="599.76" departLane="best" departSpeed="max" from="24914992#0" to="25302636#1"/>
    <trip id="veh254" type="veh_passenger" depart="606.92" departLane="best" departSpeed="max" from="24914992#0" to="202157002#2"/>
    <trip id="veh255" type="veh_passenger" depart="609.31" departLane="best" from="168942727#2" to="-28016312#0"/>
    <trip id="veh256" type="veh_passenger" depart="611.70" departLane="best" from="24914992#1" to="46140376#0"/>
    <trip id="veh257" type="veh_passenger" depart="614.09" departLane="best" departSpeed="max" from="24914992#0" to="490365295#1"/>
    <trip id="veh258" type="veh_passenger" depart="616.48" departLane="best" from="234463931#6" to="30721660#2"/>
    <trip id="veh259" type="veh_passenger" depart="618.87" departLane="best" from="743631784" to="30721660#2"/>
    <trip id="veh260" type="veh_passenger" depart="621.26" departLane="best" departSpeed="max" from="-55741054" to="-84960595"/>
    <trip id="veh263" type="veh_passenger" depart="628.43" departLane="best" from="24914992#1" to="1024034690"/>
    <trip id="veh265" type="veh_passenger" depart="633.21" departLane="best" from="24914992#1" to="-28016312#0"/>
    <trip id="veh267" type="veh_passenger" depart="637.99" departLane="best" from="234463931#6" to="202157002#2"/>
    <trip id="veh268" type="veh_passenger" depart="640.38" departLane="best" from="168942727#1" to="30721660#2"/>
    <trip id="veh269" type="veh_passenger" depart="642.77" departLane="best" departSpeed="max" from="24914992#0" to="30721660#2"/>
    <trip id="veh270" type="veh_passenger" depart="645.16" departLane="best" from="316746323#0" to="156364556#1"/>
    <trip id="veh272" type="veh_passenger" depart="649.94" departLane="best" departSpeed="max" from="24914992#0" to="30721660#2"/>
    <trip id="veh273" type="veh_passenger" depart="652.32" departLane="best" departSpeed="max" from="28016312#0" to="1024034690"/>
    <trip id="veh274" type="veh_passenger" depart="654.71" departLane="best" departSpeed="max" from="-25294729#1" to="1024034690"/>
    <trip id="veh275" type="veh_passenger" depart="657.10" departLane="best" departSpeed="max" from="24914992#0" to="-84960595"/>
    <trip id="veh276" type="veh_passenger" depart="659.49" departLane="best" departSpeed="max" from="28016312#0" to="188914559"/>
    <trip id="veh278" type="veh_passenger" depart="664.27" departLane="best" from="234463931#4" to="202157002#2"/>
    <trip id="veh279" type="veh_passenger" depart="666.66" departLane="best" departSpeed="max" from="24914992#0" to="-370359204#1"/>
    <trip id="veh280" type="veh_passenger" depart="669.05" departLane="best" departSpeed="max" from="-188914559" to="30721660#2"/>
    <trip id="veh281" type="veh_passenger" depart="671.44" departLane="best" from="370359204#0" to="202157002#2"/>
    <trip id="veh282" type="veh_passenger" depart="673.83" departLane="best" from="234463931#2" to="30721660#2"/>
    <trip id="veh285" type="veh_passenger" depart="681.00" departLane="best" departSpeed="max" from="-188914559" to="-28016312#0"/>
    <trip id="veh286" type="veh_passenger" depart="683.39" departLane="best" from="490365295#0" to="46140376#1"/>
    <trip id="veh287" type="veh_passenger" depart="685.78" departLane="best" from="168942727#3" to="202157002#2"/>
    <trip id="veh291" type="veh_passenger" depart="695.33" departLane="best" departSpeed="max" from="28016312#0" to="234463931#3"/>
    <trip id="veh292" type="veh_passenger" depart="697.72" departLane="best" departSpeed="max" from="-25294729#1" to="1024034690"/>
    <trip id="veh293" type="veh_passenger" depart="700.11" departLane="best" departSpeed="max" from="83517332#0" to="188914559"/>
    <trip id="veh294" type="veh_passenger" depart="702.50" departLane="best" departSpeed="max" from="-55741054" to="-316746323#0"/>
    <trip id="veh295" type="veh_passenger" depart="704.89" departLane="best" departSpeed="max" from="-188914559" to="316746323#0"/>
    <trip id="veh297" type="veh_passenger" depart="709.67" departLane="best" departSpeed="max" from="28016312#0" to="-62363402"/>
    <trip id="veh298" type="veh_passenger" depart="712.06" departLane="best" departSpeed="max" from="24914992#0" to="156364556#1"/>
    <trip id="veh302" type="veh_passenger" depart="721.62" departLane="best" departSpeed="max" from="83517332#0" to="30721660#2"/>
    <trip id="veh303" type="veh_passenger" depart="724.01" departLane="best" departSpeed="max" from="28016312#0" to="-316746323#0"/>
    <trip id="veh304" type="veh_passenger" depart="726.40" departLane="best" departSpeed="max" from="-55741054" to="202157002#2"/>
    <trip id="veh311" type="veh_passenger" depart="743.12" departLane="best" from="77348147" to="30721660#2"/>
    <trip id="veh312" type="veh_passenger" depart="745.51" departLane="best" departSpeed="max" from="24914992#0" to="30721660#2"/>
    <trip id="veh314" type="veh_passenger" depart="750.29" departLane="best" departSpeed="max" from="-188914559" to="156364570#2"/>
    <trip id="veh318" type="veh_passenger" depart="759.85" departLane="best" departSpeed="max" from="-55741054" to="-316746323#2"/>
    <trip id="veh319" type="veh_passenger" depart="762.24" departLane="best" departSpeed="max" from="24914992#0" to="-28016312#0"/>
    <trip id="veh320" type="veh_passenger" depart="764.63" departLane="best" from="171826985#3" to="188914559"/>
    <trip id="veh321" type="veh_passenger" depart="767.02" departLane="best" departSpeed="max" from="83517332#0" to="202157002#2"/>
    <trip id="veh322" type="veh_passenger" depart="769.41" departLane="best" departSpeed="max" from="-55741054" to="-168942727#0"/>
    <trip id="veh324" type="veh_passenger" depart="774.19" departLane="best" departSpeed="max" from="24914992#0" to="202157002#2"/>
    <trip id="veh325" type="veh_passenger" depart="776.58" departLane="best" from="234463928#1" to="30721660#2"/>
    <trip id="veh326" type="veh_passenger" depart="778.97" departLane="best" departSpeed="max" from="-25294729#1" to="30721660#0"/>
    <trip id="veh327" type="veh_passenger" depart="781.36" departLane="best" departSpeed="max" from="24914992#0" to="30721660#2"/>
    <trip id="veh328" type="veh_passenger" depart="783.75" departLane="best" departSpeed="max" from="-188914559" to="28016312#1"/>
    <trip id="veh330" type="veh_passenger" depart="788.52" departLane="best" from="24914992#1" to="1024034690"/>
    <trip id="veh334" type="veh_passenger" depart="798.08" departLane="best" departSpeed="max" from="83517332#0" to="188914559"/>
    <trip id="veh336" type="veh_passenger" depart="802.86" departLane="best" from="171826985#3" to="30721660#2"/>
    <trip id="veh337" type="veh_passenger" depart="805.25" departLane="best" departSpeed="max" from="24914992#0" to="-28016312#0"/>
    <trip id="veh338" type="veh_passenger" depart="807.64" departLane="best" departSpeed="max" from="24914992#0" to="30721660#2"/>
    <trip id="veh340" type="veh_passenger" depart="812.42" departLane="best" from="84960595" to="168942727#3"/>
    <trip id="veh342" type="veh_passenger" depart="817.20" departLane="best" departSpeed="max" from="-188914559" to="202157002#2"/>
    <trip id="veh344" type="veh_passenger" depart="821.98" departLane="best" departSpeed="max" from="24914992#0" to="4773465#3"/>
    <trip id="veh345" type="veh_passenger" depart="824.37" departLane="best" departSpeed="max" from="28016312#0" to="-234463928#0"/>
    <trip id="veh346" type="veh_passenger" depart="826.76" departLane="best" departSpeed="max" from="-188914559" to="30721660#0"/>